<?xml version='1.0' encoding='UTF-8' standalone='yes' ?><hierarchy rotation="0"><node index="0" text="" resource-id="" class="android.widget.FrameLayout" package="com.mediflow.app" content-desc="" checkable="false" checked="false" clickable="false" enabled="true" focusable="false" focused="false" scrollable="false" long-clickable="false" password="false" selected="false" bounds="[0,0][1344,2992]"><node index="0" text="" resource-id="" class="android.widget.LinearLayout" package="com.mediflow.app" content-desc="" checkable="false" checked="false" clickable="false" enabled="true" focusable="false" focused="false" scrollable="false" long-clickable="false" password="false" selected="false" bounds="[0,0][1344,2992]"><node index="0" text="" resource-id="android:id/content" class="android.widget.FrameLayout" package="com.mediflow.app" content-desc="" checkable="false" checked="false" clickable="false" enabled="true" focusable="false" focused="false" scrollable="false" long-clickable="false" password="false" selected="false" bounds="[0,0][1344,2992]"><node index="0" text="" resource-id="" class="android.widget.FrameLayout" package="com.mediflow.app" content-desc="" checkable="false" checked="false" clickable="false" enabled="true" focusable="true" focused="true" scrollable="false" long-clickable="false" password="false" selected="false" bounds="[0,0][1344,2992]"><node index="0" text="" resource-id="" class="android.view.View" package="com.mediflow.app" content-desc="" checkable="false" checked="false" clickable="false" enabled="true" focusable="false" focused="false" scrollable="false" long-clickable="false" password="false" selected="false" bounds="[0,0][1344,2992]"><node index="0" text="" resource-id="" class="android.view.View" package="com.mediflow.app" content-desc="" checkable="false" checked="false" clickable="false" enabled="true" focusable="false" focused="false" scrollable="false" long-clickable="false" password="false" selected="false" bounds="[0,0][1344,2992]"><node index="0" text="" resource-id="" class="android.view.View" package="com.mediflow.app" content-desc="Scrim" checkable="false" checked="false" clickable="true" enabled="true" focusable="true" focused="false" scrollable="false" long-clickable="false" password="false" selected="false" bounds="[0,0][1344,958]" /><node index="1" text="" resource-id="" class="android.view.View" package="com.mediflow.app" content-desc="" checkable="false" checked="false" clickable="false" enabled="true" focusable="false" focused="false" scrollable="false" long-clickable="false" password="false" selected="false" bounds="[0,0][1344,2992]"><node index="0" text="" resource-id="" class="android.view.View" package="com.mediflow.app" content-desc="" checkable="false" checked="false" clickable="false" enabled="true" focusable="false" focused="false" scrollable="false" long-clickable="false" password="false" selected="false" bounds="[0,0][1344,2992]"><node index="0" text="" resource-id="" class="android.view.View" package="com.mediflow.app" content-desc="Blood Pressure" checkable="false" checked="false" clickable="false" enabled="true" focusable="true" focused="false" scrollable="false" long-clickable="false" password="false" selected="false" bounds="[264,1084][683,1165]" /><node index="1" text="" resource-id="" class="android.view.View" package="com.mediflow.app" content-desc="Systolic / Diastolic" checkable="false" checked="false" clickable="false" enabled="true" focusable="true" focused="false" scrollable="false" long-clickable="false" password="false" selected="false" bounds="[264,1165][591,1216]" /><node index="2" text="" resource-id="" class="android.view.View" package="com.mediflow.app" content-desc="Enter systolic / diastolic" checkable="false" checked="false" clickable="false" enabled="true" focusable="true" focused="false" scrollable="false" long-clickable="false" password="false" selected="false" bounds="[444,1309][900,1366]" /><node index="3" text="" resource-id="" class="android.view.View" package="com.mediflow.app" content-desc="Systolic" checkable="false" checked="false" clickable="false" enabled="true" focusable="true" focused="false" scrollable="false" long-clickable="false" password="false" selected="false" bounds="[282,1414][411,1462]" /><node index="4" text="" resource-id="" class="android.view.View" package="com.mediflow.app" content-desc="Diastolic" checkable="false" checked="false" clickable="false" enabled="true" focusable="true" focused="false" scrollable="false" long-clickable="false" password="false" selected="false" bounds="[928,1414][1067,1462]" /><node index="5" text="120" resource-id="" class="android.widget.EditText" package="com.mediflow.app" content-desc="" checkable="false" checked="false" clickable="true" enabled="true" focusable="true" focused="true" scrollable="false" long-clickable="false" password="false" selected="false" bounds="[72,1480][621,1714]" /><node index="6" text="" resource-id="" class="android.view.View" package="com.mediflow.app" content-desc=" / " checkable="false" checked="false" clickable="false" enabled="true" focusable="true" focused="false" scrollable="false" long-clickable="false" password="false" selected="false" bounds="[621,1494][723,1647]" /><node index="7" text="80" resource-id="" class="android.widget.EditText" package="com.mediflow.app" content-desc="" checkable="false" checked="false" clickable="true" enabled="true" focusable="true" focused="false" scrollable="false" long-clickable="false" password="false" selected="false" bounds="[723,1480][1272,1714]" /><node index="8" text="" resource-id="" class="android.view.View" package="com.mediflow.app" content-desc="mmHg" checkable="false" checked="false" clickable="false" enabled="true" focusable="true" focused="false" scrollable="false" long-clickable="false" password="false" selected="false" bounds="[605,1738][739,1798]" /><node index="9" text="" resource-id="" class="android.view.View" package="com.mediflow.app" content-desc="Save Reading" checkable="false" checked="false" clickable="true" enabled="true" focusable="true" focused="false" scrollable="false" long-clickable="false" password="false" selected="false" bounds="[72,1882][1272,2044]" /></node></node></node></node></node></node></node><node index="1" text="" resource-id="android:id/navigationBarBackground" class="android.view.View" package="com.mediflow.app" content-desc="" checkable="false" checked="false" clickable="false" enabled="true" focusable="false" focused="false" scrollable="false" long-clickable="false" password="false" selected="false" bounds="[0,2920][1344,2992]" /></node></hierarchy>