<?xml version='1.0' encoding='UTF-8' standalone='yes' ?><hierarchy rotation="0"><node index="0" text="" resource-id="" class="android.widget.FrameLayout" package="com.mediflow.app" content-desc="" checkable="false" checked="false" clickable="false" enabled="true" focusable="false" focused="false" scrollable="false" long-clickable="false" password="false" selected="false" bounds="[0,0][1344,2992]"><node index="0" text="" resource-id="" class="android.widget.LinearLayout" package="com.mediflow.app" content-desc="" checkable="false" checked="false" clickable="false" enabled="true" focusable="false" focused="false" scrollable="false" long-clickable="false" password="false" selected="false" bounds="[0,0][1344,2992]"><node index="0" text="" resource-id="android:id/content" class="android.widget.FrameLayout" package="com.mediflow.app" content-desc="" checkable="false" checked="false" clickable="false" enabled="true" focusable="false" focused="false" scrollable="false" long-clickable="false" password="false" selected="false" bounds="[0,0][1344,2992]"><node index="0" text="" resource-id="" class="android.widget.FrameLayout" package="com.mediflow.app" content-desc="" checkable="false" checked="false" clickable="false" enabled="true" focusable="true" focused="true" scrollable="false" long-clickable="false" password="false" selected="false" bounds="[0,0][1344,2992]"><node index="0" text="" resource-id="" class="android.view.View" package="com.mediflow.app" content-desc="" checkable="false" checked="false" clickable="false" enabled="true" focusable="false" focused="false" scrollable="false" long-clickable="false" password="false" selected="false" bounds="[0,0][1344,2992]"><node index="0" text="" resource-id="" class="android.view.View" package="com.mediflow.app" content-desc="" checkable="false" checked="false" clickable="false" enabled="true" focusable="false" focused="false" scrollable="false" long-clickable="false" password="false" selected="false" bounds="[0,0][1344,2992]"><node index="0" text="" resource-id="" class="android.view.View" package="com.mediflow.app" content-desc="Scrim" checkable="false" checked="false" clickable="true" enabled="true" focusable="true" focused="false" scrollable="false" long-clickable="false" password="false" selected="false" bounds="[0,0][1344,1567]" /><node index="1" text="" resource-id="" class="android.view.View" package="com.mediflow.app" content-desc="" checkable="false" checked="false" clickable="false" enabled="true" focusable="false" focused="false" scrollable="false" long-clickable="false" password="false" selected="false" bounds="[0,0][1344,2992]"><node index="0" text="" resource-id="" class="android.view.View" package="com.mediflow.app" content-desc="" checkable="false" checked="false" clickable="false" enabled="true" focusable="false" focused="false" scrollable="false" long-clickable="false" password="false" selected="false" bounds="[0,0][1344,2992]"><node index="0" text="" resource-id="" class="android.view.View" package="com.mediflow.app" content-desc="Weight" checkable="false" checked="false" clickable="false" enabled="true" focusable="true" focused="false" scrollable="false" long-clickable="false" password="false" selected="false" bounds="[264,1693][456,1774]" /><node index="1" text="" resource-id="" class="android.view.View" package="com.mediflow.app" content-desc="Body weight" checkable="false" checked="false" clickable="false" enabled="true" focusable="true" focused="false" scrollable="false" long-clickable="false" password="false" selected="false" bounds="[264,1774][484,1825]" /><node index="2" text="" resource-id="" class="android.view.View" package="com.mediflow.app" content-desc="70.0 kg" checkable="false" checked="false" clickable="false" enabled="true" focusable="true" focused="false" scrollable="false" long-clickable="false" password="false" selected="false" bounds="[555,1918][789,2011]" /><node index="3" text="" resource-id="" class="android.view.View" package="com.mediflow.app" content-desc="kg" checkable="false" checked="false" clickable="false" enabled="true" focusable="true" focused="false" scrollable="false" long-clickable="false" password="false" selected="false" bounds="[402,2041][441,2089]" /><node index="4" text="" resource-id="" class="android.view.View" package="com.mediflow.app" content-desc="g×100" checkable="false" checked="false" clickable="false" enabled="true" focusable="true" focused="false" scrollable="false" long-clickable="false" password="false" selected="false" bounds="[989,2041][1090,2089]" /><node index="5" text="" resource-id="" class="android.widget.SeekBar" package="com.mediflow.app" content-desc="70" checkable="false" checked="false" clickable="false" enabled="true" focusable="true" focused="false" scrollable="false" long-clickable="false" password="false" selected="false" bounds="[72,2107][771,2602]" /><node index="6" text="" resource-id="" class="android.view.View" package="com.mediflow.app" content-desc="." checkable="false" checked="false" clickable="false" enabled="true" focusable="true" focused="false" scrollable="false" long-clickable="false" password="false" selected="false" bounds="[771,2248][806,2419]" /><node index="7" text="" resource-id="" class="android.widget.SeekBar" package="com.mediflow.app" content-desc="0" checkable="false" checked="false" clickable="false" enabled="true" focusable="true" focused="false" scrollable="false" long-clickable="false" password="false" selected="false" bounds="[806,2107][1272,2602]" /><node index="8" text="" resource-id="" class="android.view.View" package="com.mediflow.app" content-desc="Save Reading" checkable="false" checked="false" clickable="true" enabled="true" focusable="true" focused="false" scrollable="false" long-clickable="false" password="false" selected="false" bounds="[72,2686][1272,2848]" /></node></node></node></node></node></node></node><node index="1" text="" resource-id="android:id/navigationBarBackground" class="android.view.View" package="com.mediflow.app" content-desc="" checkable="false" checked="false" clickable="false" enabled="true" focusable="false" focused="false" scrollable="false" long-clickable="false" password="false" selected="false" bounds="[0,2920][1344,2992]" /></node></hierarchy>